LAMMPS (29 Sep 2021 - Update 3)
#----------------------------------------------------------------------------------------------
# Author        : André Guerra
# Date          : November, 2021
# Description   :
# Notes         :
# Updated       : July, 2022
#----------------------------------------------------------------------------------------------

# Initialization Section ----------------------------------------------------------------------

units           real
atom_style      full
# pair style dependent on water model selected
pair_style      lj/cut/tip4p/long 1 2 1 1 0.1577 8.5 8.5 # OM dist, coulombic cutoff
pair_modify     tail yes
kspace_style    pppm/tip4p 1.0e-5
pair_modify     mix arithmetic # Lorenz – Berthelot mixing rules
neighbor        2.0 bin
neigh_modify    every 1 delay 0 check yes
bond_style      harmonic
angle_style     harmonic

# define new system or restart previous one
read_data system.data
Reading data file ...
  orthogonal box = (-16.000000 -16.000000 -16.000000) to (16.000000 16.000000 16.000000)
  reading atoms ...
  2550 atoms
  scanning bonds ...
  scanning angles ...
  reading bonds ...
  1700 bonds
  reading angles ...
  850 angles
Finding 1-2 1-3 1-4 neighbors ...
     2 = max # of 1-2 neighbors
     1 = max # of 1-3 neighbors
     1 = max # of 1-4 neighbors
     2 = max # of special neighbors
replicate   1 1 1
Replicating atoms ...
  orthogonal box = (-16.000000 -16.000000 -16.000000) to (16.000000 16.000000 16.000000)
  2550 atoms
  1700 bonds
  850 angles
Finding 1-2 1-3 1-4 neighbors ...
     2 = max # of 1-2 neighbors
     1 = max # of 1-3 neighbors
     1 = max # of 1-4 neighbors
     2 = max # of special neighbors
  replicate CPU = 0.009 seconds

# import molecule information depending on system simulated and water model used
include tip4p-ice.data
bond_coeff      1 600.0 0.9572      # K of harmonic, ro of OH bond
angle_coeff     1 75.0 104.52       # K of harmonic, theta of HOH angle
pair_coeff      1 1 0.21084 3.1668  # LJ eps, sig of O-O
pair_coeff      1 2 0 0             # LJ eps, sig of O-H
pair_coeff      2 2 0 0             # LJ eps, sig of H-H

group           water type 1 2      # group H2O atoms
2550 atoms in group water

set type 1 charge -1.1794           # O charge
Setting atom values ...
  850 settings made for charge
set type 2 charge  0.5897           # H charge
Setting atom values ...
  1700 settings made for charge

# Variables Definition ------------------------------------------------------------------------

# convert from LAMMPS real units to SI
variable        atm2Pa equal 101325.0
variable        MPa2atm equal 9.86923
variable        A2m equal 1.0e-10
variable        A2tomm2 equal 1.0e-14
variable        A2tom2 equal 1.0e-20
variable        fs2s equal 1.0e-15
variable        A3_m3 equal 1.0e-30
variable        m3_cm3 equal 1.0e6
variable        Avogadro equal 6.0221412e23
variable        kCal2J equal 4184/6.0221412e+23

#----------------------------------------------------------
# Test conditions
variable        Ptest equal 0.1 # MPa
variable        T equal 275   # K
#----------------------------------------------------------

# constants
variable        dim equal 3                         # dimension of simulation
variable        kB equal 1.3806504e-23              # [J/K] Boltzmann
variable        dt equal 2.0                        # femtoseconds
variable        P equal 0.1*9.86923
variable        Pdamp equal 1000*2
variable        Tdamp equal 100*2
variable        V equal vol                         # volume [A3]
variable        p equal 400                         # correlation length
variable        s equal 5                           # sample interval
variable        d equal $p*$s                       # dump interval
variable        d equal 400*$s
variable        d equal 400*5
variable        H2O_MM equal 18.02                  # H2O molec weight
variable        CH4_MM equal 16.04                  # CH4 molec weight
variable        CO2_MM equal 44.01                  # CO2 molec weight
variable        H2O_molecs equal count(water)/3     # number of H2O molecs
# NOTE: 3 atoms/H2O molec; 5 atom/CH4 molec because AA model

#----------------------------------------------------------------------------------------------
# minimization protocol --
thermo          50
minimize        1.0e-4 1.0e-6 10000 100000 # etol ftol iter eval
PPPM initialization ...
  extracting TIP4P info from pair style
  G vector (1/distance) = 0.36696415
  grid = 36 36 36
  stencil order = 5
  estimated absolute RMS force accuracy = 0.0037194064
  estimated relative force accuracy = 1.1200882e-05
  3d grid and FFT values/proc = 79507 46656
  update every 1 steps, delay 0 steps, check yes
Step Temp E_pair E_mol TotEng Press
0            0    365.78951    2333.7041    2699.4936   -45261.605
Loop time of 7.65334 on 1 procs for 278 steps with 2550 atoms

Minimization stats:
  Stopping criterion = energy tolerance
  Energy initial, next-to-last, final =
  Force two-norm initial, final = 2958.9010 60.063154
  Force max component initial, final = 672.21610 9.9373717
  Final line search alpha, max atom move = 0.010103569 0.10040292
  Iterations, force evaluations = 278 505

#----------------------------------------------------------------------------------------------
# Simulation protocol --

# assign velocities randomly using a Gaussian distribution
velocity        all create 275 123456 loop geom mom yes rot yes dist gaussian
# assign velocities randomly using a Gaussian distribution

# produce final coordinates file (with cmd dump) for visualization
variable        dumpFreq equal $d*5
variable        dumpFreq equal 2000*5
dump            trjdcd all dcd 10000 traj/traj.npt.dcd

# make water molecule bonds rigid using share
fix fixshake water shake 0.0001 100 0 a 1 b 1 # eliminate vel components down bonds
       0 = # of size 2 clusters
       0 = # of size 3 clusters
       0 = # of size 4 clusters
     850 = # of frozen angles
  find clusters CPU = 0.000 seconds

variable        endstep equal step
variable        rstrtstep equal 278
reset_timestep  0
variable        ttlstep equal 278+step

# select ensemble
fix fixnpt all npt temp 275 275 200 iso 0.986923 0.986923 2000 drag 20.0

#----------------------------------------------------------------------------------------------
# average property calculations
variable        H2O_mass equal 850*(18.02/6.0221412e+23)
variable        rho equal 2.54344750335645e-20/(vol*1e-30*1000000)
fix             rhoAve all ave/time $s $p $d v_rho                 file ./fix/density.txt
fix             rhoAve all ave/time 5 $p $d v_rho                 file ./fix/density.txt
fix             rhoAve all ave/time 5 400 $d v_rho                 file ./fix/density.txt
fix             rhoAve all ave/time 5 400 2000 v_rho                 file ./fix/density.txt

compute         T all temp
fix             tempAve all ave/time $s $p $d c_T
fix             tempAve all ave/time 5 $p $d c_T
fix             tempAve all ave/time 5 400 $d c_T
fix             tempAve all ave/time 5 400 2000 c_T

variable        P equal press
fix             pressAve all ave/time $s $p $d v_P
fix             pressAve all ave/time 5 $p $d v_P
fix             pressAve all ave/time 5 400 $d v_P
fix             pressAve all ave/time 5 400 2000 v_P

compute         PE all pe pair kspace
variable        PEmol equal c_PE/850
fix             avePEmol all ave/time $s $p $d v_PEmol
fix             avePEmol all ave/time 5 $p $d v_PEmol
fix             avePEmol all ave/time 5 400 $d v_PEmol
fix             avePEmol all ave/time 5 400 2000 v_PEmol

variable        initStep equal step
variable        fracDone equal (step-0)/20000
variable        ttlFracDone equal v_ttlstep/(20000+278)

# setting restart frequency
restart         2500 ./restart/restart_npt_*step.data

timestep        2
thermo_style    custom step v_fracDone v_ttlstep v_ttlFracDone temp f_tempAve press f_pressAve                 vol density v_rho f_rhoAve pe v_PEmol f_avePEmol ke etotal

thermo_modify   flush yes # no buffer; output to file is online
thermo          $d # 2000 fs; must be the same as fix calculation intervals
thermo          2000

# run
run             20000
PPPM initialization ...
  extracting TIP4P info from pair style
  G vector (1/distance) = 0.36696415
  grid = 36 36 36
  stencil order = 5
  estimated absolute RMS force accuracy = 0.0037194064
  estimated relative force accuracy = 1.1200882e-05
  3d grid and FFT values/proc = 79507 46656
Step v_fracDone v_ttlstep v_ttlFracDone Temp f_tempAve Press f_pressAve Volume Density v_rho f_rhoAve PotEng v_PEmol f_avePEmol KinEng TotEng
0            0          278  0.013709439    412.58093            0   -3300.8759            0        32768    0.7759832   0.77619858            0   -13003.659   -15.298422            0    2089.4733   -10914.185
Averages over the last 6 of 11 rows, steps 10000 to 20000:
v_fracDone v_ttlstep v_ttlFracDone Temp f_tempAve Press f_pressAve Volume Density v_rho f_rhoAve PotEng v_PEmol f_avePEmol KinEng TotEng
0.75 15278 0.753427 275.784 272.095 89.474 -157.428 26397.1 0.96334 0.963608 0.960456 -11345.5 -13.3476 -13.3311 1396.68 -9948.78
Loop time of 548.081 on 1 procs for 20000 steps with 2550 atoms

# write system end state
write_data      ./data/systemEnd_npt_*step.data
System init for write_data ...
PPPM initialization ...
  extracting TIP4P info from pair style
  G vector (1/distance) = 0.37319316
  grid = 36 36 36
  stencil order = 5
  estimated absolute RMS force accuracy = 0.0029795459
  estimated relative force accuracy = 8.9728139e-06
  3d grid and FFT values/proc = 79507 46656

# output a restart file
write_restart   ./restart/restartEnd_npt_*step.data
System init for write_restart ...
PPPM initialization ...
  extracting TIP4P info from pair style
  G vector (1/distance) = 0.37319316
  grid = 36 36 36
  stencil order = 5
  estimated absolute RMS force accuracy = 0.0029795459
  estimated relative force accuracy = 8.9728139e-06
  3d grid and FFT values/proc = 79507 46656

# End -----------------------------------------------------------------------------------------
